ibuprofen
     RDKit          3D

 33 33  0  0  0  0  0  0  0  0999 V2000
   -2.9547    1.6415   -0.6591 C   0  0  0  0  0  0  0  0  0  0  0  0
   -3.1302    0.5620    0.4121 C   0  0  0  0  0  0  0  0  0  0  0  0
   -4.6210    0.3012    0.6413 C   0  0  0  0  0  0  0  0  0  0  0  0
   -2.4234   -0.7529    0.0289 C   0  0  0  0  0  0  0  0  0  0  0  0
   -0.9175   -0.6471   -0.0102 C   0  0  0  0  0  0  0  0  0  0  0  0
   -0.1809   -0.5429    1.1755 C   0  0  0  0  0  0  0  0  0  0  0  0
    1.2120   -0.4392    1.1410 C   0  0  0  0  0  0  0  0  0  0  0  0
    1.8992   -0.4391   -0.0807 C   0  0  0  0  0  0  0  0  0  0  0  0
    1.1581   -0.5426   -1.2670 C   0  0  0  0  0  0  0  0  0  0  0  0
   -0.2347   -0.6464   -1.2316 C   0  0  0  0  0  0  0  0  0  0  0  0
    3.4124   -0.3245   -0.1002 C   0  0  0  0  0  0  0  0  0  0  0  0
    4.0721   -1.5662   -0.7043 C   0  0  0  0  0  0  0  0  0  0  0  0
    3.8730    0.9240   -0.8294 C   0  0  0  0  0  0  0  0  0  0  0  0
    4.1583    1.0230   -2.0126 O   0  0  0  0  0  0  0  0  0  0  0  0
    3.9370    2.0061   -0.0248 O   0  0  0  0  0  0  0  0  0  0  0  0
   -1.9024    1.9187   -0.7764 H   0  0  0  0  0  0  0  0  0  0  0  0
   -3.5024    2.5501   -0.3867 H   0  0  0  0  0  0  0  0  0  0  0  0
   -3.3282    1.3013   -1.6309 H   0  0  0  0  0  0  0  0  0  0  0  0
   -2.7103    0.9437    1.3515 H   0  0  0  0  0  0  0  0  0  0  0  0
   -5.1031   -0.0764   -0.2669 H   0  0  0  0  0  0  0  0  0  0  0  0
   -5.1356    1.2203    0.9412 H   0  0  0  0  0  0  0  0  0  0  0  0
   -4.7689   -0.4372    1.4365 H   0  0  0  0  0  0  0  0  0  0  0  0
   -2.7977   -1.1098   -0.9397 H   0  0  0  0  0  0  0  0  0  0  0  0
   -2.6828   -1.5382    0.7517 H   0  0  0  0  0  0  0  0  0  0  0  0
   -0.6890   -0.5412    2.1373 H   0  0  0  0  0  0  0  0  0  0  0  0
    1.7549   -0.3561    2.0801 H   0  0  0  0  0  0  0  0  0  0  0  0
    1.6583   -0.5383   -2.2341 H   0  0  0  0  0  0  0  0  0  0  0  0
   -0.7827   -0.7215   -2.1682 H   0  0  0  0  0  0  0  0  0  0  0  0
    3.7882   -0.2460    0.9292 H   0  0  0  0  0  0  0  0  0  0  0  0
    3.7963   -1.7105   -1.7549 H   0  0  0  0  0  0  0  0  0  0  0  0
    5.1638   -1.4796   -0.6653 H   0  0  0  0  0  0  0  0  0  0  0  0
    3.7834   -2.4694   -0.1556 H   0  0  0  0  0  0  0  0  0  0  0  0
    4.1985    2.7331   -0.6275 H   0  0  0  0  0  0  0  0  0  0  0  0
  1  2  1  0
  2  3  1  0
  2  4  1  0
  4  5  1  0
  5  6  1  0
  6  7  2  0
  7  8  1  0
  8  9  2  0
  9 10  1  0
  8 11  1  0
 11 12  1  0
 11 13  1  0
 13 14  2  0
 13 15  1  0
 10  5  2  0
  1 16  1  0
  1 17  1  0
  1 18  1  0
  2 19  1  0
  3 20  1  0
  3 21  1  0
  3 22  1  0
  4 23  1  0
  4 24  1  0
  6 25  1  0
  7 26  1  0
  9 27  1  0
 10 28  1  0
 11 29  1  0
 12 30  1  0
 12 31  1  0
 12 32  1  0
 15 33  1  0
M  END
>  <MMFF_energy>  (1) 
23.790

$$$$
